Version 4
SHEET 1 1040 680
WIRE 128 128 128 96
WIRE 224 128 224 96
WIRE 96 176 64 176
WIRE 288 176 256 176
WIRE 176 256 176 224
FLAG 128 96 A
IOPIN 128 96 In
FLAG 224 96 B
IOPIN 224 96 In
FLAG 288 176 Cin
IOPIN 288 176 In
FLAG 176 256 S
IOPIN 176 256 Out
FLAG 64 176 Cout
IOPIN 64 176 Out
FLAG 416 96 A
IOPIN 416 96 Out
FLAG 544 96 B
IOPIN 544 96 Out
FLAG 656 96 Cin
IOPIN 656 96 Out
FLAG 416 176 0
FLAG 544 176 0
FLAG 656 176 0
SYMBOL Full_Adder 176 176 R0
SYMATTR InstName FULL_ADDER
SYMBOL voltage 416 80 R0
WINDOW 3 -165 -33 Left 2
WINDOW 123 0 0 Left 0
WINDOW 39 0 0 Left 0
SYMATTR InstName V1
SYMATTR Value PULSE(0 5 1n 1n 1n 2.5m 5m)
SYMBOL voltage 544 80 R0
WINDOW 3 -162 128 Left 2
WINDOW 123 0 0 Left 0
WINDOW 39 0 0 Left 0
SYMATTR InstName V2
SYMATTR Value PULSE(0 5 1n 1n 1n 5m 10m)
SYMBOL voltage 656 80 R0
WINDOW 3 -109 -66 Left 2
WINDOW 123 0 0 Left 0
WINDOW 39 0 0 Left 0
SYMATTR InstName V3
SYMATTR Value PULSE(0 5 1n 1n 1n 10m 20m)
