Version 4
SHEET 1 880 680
WIRE -32 96 -32 64
WIRE 64 96 64 64
WIRE -64 144 -96 144
WIRE 16 224 16 192
FLAG -32 64 A
IOPIN -32 64 In
FLAG 64 64 B
IOPIN 64 64 In
FLAG -96 144 Cout
IOPIN -96 144 Out
FLAG 16 224 S
IOPIN 16 224 Out
FLAG 224 176 0
FLAG 400 176 0
FLAG 224 96 A
IOPIN 224 96 Out
FLAG 400 96 B
IOPIN 400 96 Out
SYMBOL Half_Adder 16 144 R0
SYMATTR InstName HALF_ADDER
SYMBOL voltage 224 80 R0
WINDOW 3 -121 -32 Left 2
WINDOW 123 0 0 Left 0
WINDOW 39 0 0 Left 0
SYMATTR Value PULSE(0 5 1n 1n 1n 5m 10m)
SYMATTR InstName V1
SYMBOL voltage 400 80 R0
WINDOW 3 -188 130 Left 2
WINDOW 123 0 0 Left 0
WINDOW 39 0 0 Left 0
SYMATTR Value PULSE(0 5 1n 1n 1n 10m 20m)
SYMATTR InstName V2
