Version 4
SHEET 1 880 680
WIRE 336 64 336 48
WIRE 368 64 368 48
WIRE 304 96 288 96
WIRE 352 128 352 112
FLAG 336 48 A
IOPIN 336 48 In
FLAG 368 48 B
IOPIN 368 48 In
FLAG -48 256 0
FLAG 80 256 0
FLAG -48 176 A
IOPIN -48 176 Out
FLAG 80 176 B
IOPIN 80 176 Out
FLAG 288 96 Cout
IOPIN 288 96 Out
FLAG 352 128 S
IOPIN 352 128 Out
SYMBOL Half_Adder 352 96 R0
SYMATTR InstName Half_Adder_1
SYMBOL voltage -48 160 R0
WINDOW 0 -11 57 Left 2
WINDOW 3 -162 -33 Left 2
WINDOW 123 0 0 Left 0
WINDOW 39 0 0 Left 0
SYMATTR InstName V1
SYMATTR Value PULSE(0 5 1n 1n 1n 5m 10m)
SYMBOL voltage 80 160 R0
WINDOW 0 -13 57 Left 2
WINDOW 3 -107 130 Left 2
WINDOW 123 0 0 Left 0
WINDOW 39 0 0 Left 0
SYMATTR InstName V2
SYMATTR Value PULSE(0 5 1n 1n 1n 10m 20m)
TEXT -196 38 Left 2 !.tran 20ms
