Version 4
SHEET 1 880 680
WIRE 176 112 176 96
WIRE 208 112 208 96
WIRE 144 144 128 144
WIRE 256 144 240 144
WIRE 192 176 192 160
FLAG 176 96 A
IOPIN 176 96 In
FLAG 208 96 B
IOPIN 208 96 In
FLAG 256 144 Cin
IOPIN 256 144 In
FLAG -176 320 0
FLAG -48 320 0
FLAG 80 320 0
FLAG 128 144 Cout
IOPIN 128 144 Out
FLAG 192 176 S
IOPIN 192 176 Out
FLAG -48 240 B
IOPIN -48 240 Out
FLAG 80 240 Cin
IOPIN 80 240 Out
FLAG -176 240 A
IOPIN -176 240 Out
SYMBOL Full_Adder 192 144 R0
SYMATTR InstName Full_Adder_1
SYMBOL voltage -176 224 R0
WINDOW 0 -10 57 Left 2
WINDOW 3 -113 -38 Left 2
WINDOW 123 0 0 Left 0
WINDOW 39 0 0 Left 0
SYMATTR InstName V1
SYMATTR Value PULSE(0 5 1n 1n 1n 2.5m 5m)
SYMBOL voltage -48 224 R0
WINDOW 0 -14 58 Left 2
WINDOW 3 -149 124 Left 2
WINDOW 123 0 0 Left 0
WINDOW 39 0 0 Left 0
SYMATTR InstName V2
SYMATTR Value PULSE(0 5 1n 1n 1n 5m 10m)
SYMBOL voltage 80 224 R0
WINDOW 0 -12 57 Left 2
WINDOW 3 18 21 Left 2
WINDOW 123 0 0 Left 0
WINDOW 39 0 0 Left 0
SYMATTR InstName V3
SYMATTR Value PULSE(0 5 1n 1n 1n 10m 20m)
TEXT -258 64 Left 2 !.tran 20ms
