Version 4
SHEET 1 1028 680
WIRE 512 208 512 176
WIRE -48 448 -48 416
WIRE 32 448 32 416
WIRE 112 448 112 416
WIRE 192 448 192 416
WIRE 400 448 400 416
WIRE 480 448 480 416
WIRE 560 448 560 416
WIRE 640 448 640 416
FLAG 336 96 A0
IOPIN 336 96 In
FLAG 368 96 B0
IOPIN 368 96 In
FLAG 400 96 Cin0
IOPIN 400 96 In
FLAG 256 96 Cin1
IOPIN 256 96 In
FLAG 224 96 B1
IOPIN 224 96 In
FLAG 192 96 A1
IOPIN 192 96 In
FLAG 112 96 Cin2
IOPIN 112 96 In
FLAG 80 96 B2
IOPIN 80 96 In
FLAG 48 96 A2
IOPIN 48 96 In
FLAG -32 96 Cin3
IOPIN -32 96 In
FLAG -64 96 B3
IOPIN -64 96 In
FLAG -96 96 A3
IOPIN -96 96 In
FLAG -80 160 Cout
IOPIN -80 160 Out
FLAG -48 160 S3
IOPIN -48 160 Out
FLAG 64 160 Cin3
IOPIN 64 160 Out
FLAG 96 160 S2
IOPIN 96 160 Out
FLAG 208 160 Cin2
IOPIN 208 160 Out
FLAG 240 160 S1
IOPIN 240 160 Out
FLAG 352 160 Cin1
IOPIN 352 160 Out
FLAG 384 160 S0
IOPIN 384 160 Out
FLAG 512 208 0
FLAG 512 96 Cin0
IOPIN 512 96 Out
FLAG -48 448 0
FLAG 32 448 0
FLAG 112 448 0
FLAG 192 448 0
FLAG 400 448 0
FLAG 480 448 0
FLAG 560 448 0
FLAG 640 448 0
FLAG -48 336 A3
IOPIN -48 336 Out
FLAG 32 336 A2
IOPIN 32 336 Out
FLAG 112 336 A1
IOPIN 112 336 Out
FLAG 192 336 A0
IOPIN 192 336 Out
FLAG 400 336 B3
IOPIN 400 336 Out
FLAG 480 336 B2
IOPIN 480 336 Out
FLAG 560 336 B1
IOPIN 560 336 Out
FLAG 640 336 B0
IOPIN 640 336 Out
SYMBOL part1_circuit 368 128 R0
SYMATTR InstName full_adder1
SYMBOL part1_circuit 224 128 R0
SYMATTR InstName full_adder2
SYMBOL part1_circuit 80 128 R0
SYMATTR InstName full_adder3
SYMBOL part1_circuit -64 128 R0
SYMATTR InstName full_adder4
SYMBOL voltage 512 80 R0
WINDOW 3 -6 56 Left 2
WINDOW 123 0 0 Left 0
WINDOW 39 0 0 Left 0
SYMATTR InstName V1
SYMATTR Value 0
SYMBOL voltage -48 320 R0
WINDOW 3 -5 57 Left 2
WINDOW 123 0 0 Left 0
WINDOW 39 0 0 Left 0
SYMATTR InstName V2
SYMATTR Value 5
SYMBOL voltage 32 320 R0
WINDOW 3 -6 56 Left 2
WINDOW 123 0 0 Left 0
WINDOW 39 0 0 Left 0
SYMATTR InstName V3
SYMATTR Value 5
SYMBOL voltage 112 320 R0
WINDOW 3 -6 57 Left 2
WINDOW 123 0 0 Left 0
WINDOW 39 0 0 Left 0
SYMATTR InstName V4
SYMATTR Value 5
SYMBOL voltage 192 320 R0
WINDOW 3 -6 58 Left 2
WINDOW 123 0 0 Left 0
WINDOW 39 0 0 Left 0
SYMATTR InstName V5
SYMATTR Value 5
SYMBOL voltage 400 320 R0
WINDOW 3 -256 157 Left 2
WINDOW 123 0 0 Left 0
WINDOW 39 0 0 Left 0
SYMATTR InstName V6
SYMATTR Value PULSE(0 5 0 1n 1n 2.5m 5m)
SYMBOL voltage 480 320 R0
WINDOW 3 -179 -53 Left 2
WINDOW 123 0 0 Left 0
WINDOW 39 0 0 Left 0
SYMATTR InstName V7
SYMATTR Value PULSE(0 5 0 1n 1n 5m 10m)
SYMBOL voltage 560 320 R0
WINDOW 3 -1 163 Left 2
WINDOW 123 0 0 Left 0
WINDOW 39 0 0 Left 0
SYMATTR InstName V8
SYMATTR Value PULSE(0 5 0 1n 1n 10m 20m)
SYMBOL voltage 640 320 R0
WINDOW 3 43 56 Left 2
WINDOW 123 0 0 Left 0
WINDOW 39 0 0 Left 0
SYMATTR InstName V9
SYMATTR Value PULSE(0 5 0 1n 1n 20m 40m)
TEXT -94 526 Left 2 !.tran 40ms
