Version 4
SHEET 1 880 680
FLAG 96 96 A3
IOPIN 96 96 In
FLAG 128 96 A2
IOPIN 128 96 In
FLAG 160 96 A1
IOPIN 160 96 In
FLAG 192 96 A0
IOPIN 192 96 In
FLAG 256 96 B3
IOPIN 256 96 In
FLAG 288 96 B2
IOPIN 288 96 In
FLAG 320 96 B1
IOPIN 320 96 In
FLAG 352 96 B0
IOPIN 352 96 In
FLAG 384 128 Y3
IOPIN 384 128 In
FLAG 384 160 Y2
IOPIN 384 160 In
FLAG 384 192 Y1
IOPIN 384 192 In
FLAG 384 224 Y0
IOPIN 384 224 In
FLAG 64 128 X3
IOPIN 64 128 In
FLAG 64 224 X0
IOPIN 64 224 In
FLAG 64 192 X1
IOPIN 64 192 In
FLAG 240 256 C3
IOPIN 240 256 In
FLAG 272 256 C2
IOPIN 272 256 In
FLAG 304 256 C1
IOPIN 304 256 In
FLAG 336 256 C0
IOPIN 336 256 In
FLAG 64 160 X2
IOPIN 64 160 In
FLAG 160 256 Output
IOPIN 160 256 Out
FLAG -560 160 0
FLAG -560 336 0
FLAG -560 512 0
FLAG -560 256 B3
IOPIN -560 256 Out
FLAG -560 80 A3
IOPIN -560 80 Out
FLAG -560 432 C3
IOPIN -560 432 Out
FLAG -480 432 C2
IOPIN -480 432 Out
FLAG -400 432 C1
IOPIN -400 432 Out
FLAG -320 432 C0
IOPIN -320 432 Out
FLAG -480 256 B2
IOPIN -480 256 Out
FLAG -400 256 B1
IOPIN -400 256 Out
FLAG -320 256 B0
IOPIN -320 256 Out
FLAG -320 80 A0
IOPIN -320 80 Out
FLAG -400 80 A1
IOPIN -400 80 Out
FLAG -480 80 A2
IOPIN -480 80 Out
FLAG -480 160 0
FLAG -400 160 0
FLAG -320 160 0
FLAG -320 336 0
FLAG -400 336 0
FLAG -480 336 0
FLAG -480 512 0
FLAG -400 512 0
FLAG -320 512 0
FLAG -176 512 0
FLAG -96 512 0
FLAG -16 512 0
FLAG 64 512 0
FLAG 208 512 0
FLAG 288 512 0
FLAG 368 512 0
FLAG 448 512 0
FLAG -176 432 X3
IOPIN -176 432 Out
FLAG -96 432 X2
IOPIN -96 432 Out
FLAG -16 432 X1
IOPIN -16 432 Out
FLAG 64 432 X0
IOPIN 64 432 Out
FLAG 208 432 Y3
IOPIN 208 432 Out
FLAG 288 432 Y2
IOPIN 288 432 Out
FLAG 368 432 Y1
IOPIN 368 432 Out
FLAG 448 432 Y0
IOPIN 448 432 Out
SYMBOL TakingInference_Perceptron 224 176 R0
SYMATTR InstName X1
SYMBOL voltage -560 64 R0
WINDOW 3 -5 58 Left 2
WINDOW 123 0 0 Left 0
WINDOW 39 0 0 Left 0
SYMATTR Value 0
SYMATTR InstName V1
SYMBOL voltage -480 64 R0
WINDOW 3 -5 59 Left 2
WINDOW 123 0 0 Left 0
WINDOW 39 0 0 Left 0
SYMATTR Value 0
SYMATTR InstName V2
SYMBOL voltage -400 64 R0
WINDOW 3 -3 59 Left 2
WINDOW 123 0 0 Left 0
WINDOW 39 0 0 Left 0
SYMATTR Value 0
SYMATTR InstName V3
SYMBOL voltage -320 64 R0
WINDOW 3 -3 57 Left 2
WINDOW 123 0 0 Left 0
WINDOW 39 0 0 Left 0
SYMATTR Value 1
SYMATTR InstName V4
SYMBOL voltage -560 240 R0
WINDOW 3 -7 59 Left 2
WINDOW 123 0 0 Left 0
WINDOW 39 0 0 Left 0
SYMATTR Value 0
SYMATTR InstName V5
SYMBOL voltage -480 240 R0
WINDOW 3 -3 59 Left 2
WINDOW 123 0 0 Left 0
WINDOW 39 0 0 Left 0
SYMATTR Value 0
SYMATTR InstName V6
SYMBOL voltage -400 240 R0
WINDOW 3 -5 60 Left 2
WINDOW 123 0 0 Left 0
WINDOW 39 0 0 Left 0
SYMATTR Value 1
SYMATTR InstName V7
SYMBOL voltage -320 240 R0
WINDOW 3 -4 57 Left 2
WINDOW 123 0 0 Left 0
WINDOW 39 0 0 Left 0
SYMATTR Value 1
SYMATTR InstName V8
SYMBOL voltage -560 416 R0
WINDOW 3 -5 57 Left 2
WINDOW 123 0 0 Left 0
WINDOW 39 0 0 Left 0
SYMATTR Value 1
SYMATTR InstName V9
SYMBOL voltage -480 416 R0
WINDOW 3 -5 60 Left 2
WINDOW 123 0 0 Left 0
WINDOW 39 0 0 Left 0
SYMATTR Value 1
SYMATTR InstName V10
SYMBOL voltage -400 416 R0
WINDOW 3 -4 59 Left 2
WINDOW 123 0 0 Left 0
WINDOW 39 0 0 Left 0
SYMATTR Value 0
SYMATTR InstName V11
SYMBOL voltage -320 416 R0
WINDOW 3 -7 58 Left 2
WINDOW 123 0 0 Left 0
WINDOW 39 0 0 Left 0
SYMATTR Value 1
SYMATTR InstName V12
SYMBOL voltage -176 416 R0
WINDOW 3 -89 -52 Left 2
WINDOW 123 0 0 Left 0
WINDOW 39 0 0 Left 0
SYMATTR Value PULSE(0 1 1p 1p 1p 5m 10m)
SYMATTR InstName V13
SYMBOL voltage -96 416 R0
WINDOW 3 -5 58 Left 2
WINDOW 123 0 0 Left 0
WINDOW 39 0 0 Left 0
SYMATTR Value 1
SYMATTR InstName V14
SYMBOL voltage -16 416 R0
WINDOW 3 -4 59 Left 2
WINDOW 123 0 0 Left 0
WINDOW 39 0 0 Left 0
SYMATTR Value 0
SYMATTR InstName V15
SYMBOL voltage 64 416 R0
WINDOW 3 -5 59 Left 2
WINDOW 123 0 0 Left 0
WINDOW 39 0 0 Left 0
SYMATTR Value 0
SYMATTR InstName V16
SYMBOL voltage 208 416 R0
WINDOW 3 -6 60 Left 2
WINDOW 123 0 0 Left 0
WINDOW 39 0 0 Left 0
SYMATTR Value 0
SYMATTR InstName V17
SYMBOL voltage 288 416 R0
WINDOW 3 -5 59 Left 2
WINDOW 123 0 0 Left 0
WINDOW 39 0 0 Left 0
SYMATTR Value 0
SYMATTR InstName V18
SYMBOL voltage 368 416 R0
WINDOW 3 -5 60 Left 2
WINDOW 123 0 0 Left 0
WINDOW 39 0 0 Left 0
SYMATTR Value 0
SYMATTR InstName V19
SYMBOL voltage 448 416 R0
WINDOW 3 -5 57 Left 2
WINDOW 123 0 0 Left 0
WINDOW 39 0 0 Left 0
SYMATTR Value 1
SYMATTR InstName V20
TEXT -222 216 Left 2 !.tran 10ms
