Version 4
SHEET 1 880 784
WIRE -688 256 -720 256
WIRE 240 416 224 416
WIRE 240 496 240 416
WIRE 384 496 384 464
WIRE 384 496 240 496
WIRE -528 592 -576 592
WIRE -576 608 -576 592
WIRE -576 608 -608 608
WIRE -672 640 -720 640
WIRE -368 640 -608 640
WIRE -176 640 -208 640
WIRE 240 640 224 640
WIRE -176 720 -176 640
WIRE -32 720 -32 688
WIRE -32 720 -176 720
WIRE 240 720 240 640
WIRE 384 720 384 688
WIRE 384 720 240 720
FLAG 352 112 A3
IOPIN 352 112 In
FLAG 384 112 A2
IOPIN 384 112 In
FLAG 416 112 A1
IOPIN 416 112 In
FLAG 448 112 A0
IOPIN 448 112 In
FLAG 576 112 X3
IOPIN 576 112 In
FLAG 608 112 X2
IOPIN 608 112 In
FLAG 640 112 X1
IOPIN 640 112 In
FLAG 672 112 X0
IOPIN 672 112 In
FLAG -96 112 B3
IOPIN -96 112 In
FLAG -64 112 B2
IOPIN -64 112 In
FLAG -32 112 B1
IOPIN -32 112 In
FLAG 0 112 B0
IOPIN 0 112 In
FLAG 128 112 Y3
IOPIN 128 112 In
FLAG 160 112 Y2
IOPIN 160 112 In
FLAG 192 112 Y1
IOPIN 192 112 In
FLAG 224 112 Y0
IOPIN 224 112 In
FLAG -48 208 BY7
IOPIN -48 208 Out
FLAG -16 208 BY6
IOPIN -16 208 Out
FLAG 16 208 BY5
IOPIN 16 208 Out
FLAG 48 208 BY4
IOPIN 48 208 Out
FLAG 80 208 BY3
IOPIN 80 208 Out
FLAG 112 208 BY2
IOPIN 112 208 Out
FLAG 144 208 BY1
IOPIN 144 208 Out
FLAG 176 208 BY0
IOPIN 176 208 Out
FLAG 400 208 AX7
IOPIN 400 208 Out
FLAG 432 208 AX6
IOPIN 432 208 Out
FLAG 464 208 AX5
IOPIN 464 208 Out
FLAG 496 208 AX4
IOPIN 496 208 Out
FLAG 528 208 AX3
IOPIN 528 208 Out
FLAG 560 208 AX2
IOPIN 560 208 Out
FLAG 592 208 AX1
IOPIN 592 208 Out
FLAG 624 208 AX0
IOPIN 624 208 Out
FLAG -64 368 AX7
IOPIN -64 368 In
FLAG -32 368 AX6
IOPIN -32 368 In
FLAG 0 368 AX5
IOPIN 0 368 In
FLAG 32 368 AX4
IOPIN 32 368 In
FLAG 96 368 BY7
IOPIN 96 368 In
FLAG 128 368 BY6
IOPIN 128 368 In
FLAG 160 368 BY5
IOPIN 160 368 In
FLAG 192 368 BY4
IOPIN 192 368 In
FLAG 352 368 AX3
IOPIN 352 368 In
FLAG 384 368 AX2
IOPIN 384 368 In
FLAG 416 368 AX1
IOPIN 416 368 In
FLAG 448 368 AX0
IOPIN 448 368 In
FLAG 512 368 BY3
IOPIN 512 368 In
FLAG 544 368 BY2
IOPIN 544 368 In
FLAG 576 368 BY1
IOPIN 576 368 In
FLAG 608 368 BY0
IOPIN 608 368 In
FLAG -32 464 S8
IOPIN -32 464 Out
FLAG 16 464 S7
IOPIN 16 464 Out
FLAG 64 464 S6
IOPIN 64 464 Out
FLAG 112 464 S5
IOPIN 112 464 Out
FLAG 160 464 S4
IOPIN 160 464 Out
FLAG 432 464 S3
IOPIN 432 464 Out
FLAG 480 464 S2
IOPIN 480 464 Out
FLAG 528 464 S1
IOPIN 528 464 Out
FLAG 576 464 S0
IOPIN 576 464 Out
FLAG -336 592 S8
IOPIN -336 592 In
FLAG -240 592 C3
IOPIN -240 592 In
FLAG -64 592 S7
IOPIN -64 592 In
FLAG -32 592 S6
IOPIN -32 592 In
FLAG 0 592 S5
IOPIN 0 592 In
FLAG 32 592 S4
IOPIN 32 592 In
FLAG 96 592 C3
IOPIN 96 592 In
FLAG 128 592 C3
IOPIN 128 592 In
FLAG 160 592 C3
IOPIN 160 592 In
FLAG 192 592 C3
IOPIN 192 592 In
FLAG 352 592 S3
IOPIN 352 592 In
FLAG 384 592 S2
IOPIN 384 592 In
FLAG 416 592 S1
IOPIN 416 592 In
FLAG 448 592 S0
IOPIN 448 592 In
FLAG 512 592 C3
IOPIN 512 592 In
FLAG 544 592 C2
IOPIN 544 592 In
FLAG 576 592 C1
IOPIN 576 592 In
FLAG 608 592 C0
IOPIN 608 592 In
FLAG 576 688 W0
IOPIN 576 688 Out
FLAG 528 688 W1
IOPIN 528 688 Out
FLAG 480 688 W2
IOPIN 480 688 Out
FLAG 432 688 W3
IOPIN 432 688 Out
FLAG 160 688 W4
IOPIN 160 688 Out
FLAG 112 688 W5
IOPIN 112 688 Out
FLAG 64 688 W6
IOPIN 64 688 Out
FLAG 16 688 W7
IOPIN 16 688 Out
FLAG -288 688 W8
IOPIN -288 688 Out
FLAG -608 288 W9
IOPIN -608 288 In
FLAG -608 256 B3
IOPIN -608 256 In
FLAG -720 256 Output
IOPIN -720 256 Out
FLAG -224 448 0
FLAG -224 368 one
IOPIN -224 368 Out
FLAG -96 416 one
IOPIN -96 416 In
FLAG -464 560 S8
IOPIN -464 560 In
FLAG -464 592 C3
IOPIN -464 592 In
FLAG -720 640 W9
IOPIN -720 640 Out
FLAG -320 448 0
FLAG -320 368 zero
IOPIN -320 368 Out
FLAG 320 416 zero
IOPIN 320 416 In
FLAG 640 416 zero
IOPIN 640 416 In
FLAG 640 640 zero
IOPIN 640 640 In
FLAG -96 640 zero
IOPIN -96 640 In
FLAG 320 640 zero
IOPIN 320 640 In
SYMBOL 4-Bit_Adder 480 416 R0
SYMATTR InstName 4-BIT_ADDER-1
SYMBOL 4-Bit_Adder 64 416 R0
SYMATTR InstName 4-BIT_ADDER-2
SYMBOL 4-Bit_Adder 480 640 R0
SYMATTR InstName 4-BIT_ADDER-3
SYMBOL 4-Bit_Adder 64 640 R0
SYMATTR InstName 4-BIT_ADDER-4
SYMBOL Full_Adder -288 640 R0
SYMATTR InstName FULL_ADDER
SYMBOL Bough-Wooley_Multiplier 64 160 R0
WINDOW 0 -111 -1 Left 1
SYMATTR InstName BOUGH-WOOLEY_MULTIPLIER-2
SYMBOL Bough-Wooley_Multiplier 512 160 R0
WINDOW 0 -119 -3 Left 1
SYMATTR InstName BOUGH-WOOLEY_MULTIPLIER-1
SYMBOL Digital\\xor -656 336 R180
SYMATTR InstName A1
SYMBOL voltage -224 352 R0
WINDOW 3 -7 61 Left 2
WINDOW 123 0 0 Left 0
WINDOW 39 0 0 Left 0
SYMATTR Value 1
SYMATTR InstName V1
SYMBOL Digital\\xor -512 640 R180
SYMATTR InstName A2
SYMBOL Digital\\xor -656 688 R180
SYMATTR InstName A3
SYMBOL voltage -320 352 R0
WINDOW 3 -5 59 Left 2
WINDOW 123 0 0 Left 0
WINDOW 39 0 0 Left 0
SYMATTR InstName V2
SYMATTR Value 0
