Version 4
SHEET 1 880 680
WIRE 0 144 0 0
WIRE 144 144 144 0
WIRE 288 144 288 0
WIRE 432 144 432 0
WIRE 640 208 640 176
WIRE -112 480 -112 448
WIRE -32 480 -32 448
WIRE 48 480 48 448
WIRE 128 480 128 448
WIRE 416 480 416 448
WIRE 496 480 496 448
WIRE 576 480 576 448
WIRE 656 480 656 448
FLAG 368 -32 B0
IOPIN 368 -32 In
FLAG 368 0 B0
IOPIN 368 0 In
FLAG 224 -32 B1
IOPIN 224 -32 In
FLAG 224 0 B1
IOPIN 224 0 In
FLAG 80 -32 B2
IOPIN 80 -32 In
FLAG 80 0 B2
IOPIN 80 0 In
FLAG -64 -32 B3
IOPIN -64 -32 In
FLAG -64 0 B3
IOPIN -64 0 In
FLAG 400 144 A0
IOPIN 400 144 In
FLAG 256 144 A1
IOPIN 256 144 In
FLAG 112 144 A2
IOPIN 112 144 In
FLAG -32 144 A3
IOPIN -32 144 In
FLAG 464 144 Cin0
IOPIN 464 144 In
FLAG 320 144 Cin1
IOPIN 320 144 In
FLAG 176 144 Cin2
IOPIN 176 144 In
FLAG 32 144 Cin3
IOPIN 32 144 In
FLAG 16 208 S3
IOPIN 16 208 Out
FLAG -16 208 Cout
IOPIN -16 208 Out
FLAG 128 208 Cin3
IOPIN 128 208 Out
FLAG 160 208 S2
IOPIN 160 208 Out
FLAG 272 208 Cin2
IOPIN 272 208 Out
FLAG 304 208 S1
IOPIN 304 208 Out
FLAG 416 208 Cin1
IOPIN 416 208 Out
FLAG 448 208 S0
IOPIN 448 208 Out
FLAG 640 208 0
FLAG 416 480 0
FLAG 496 480 0
FLAG 576 480 0
FLAG 656 480 0
FLAG 640 96 Cin0
IOPIN 640 96 Out
FLAG 416 368 B3
IOPIN 416 368 Out
FLAG 496 368 B2
IOPIN 496 368 Out
FLAG 576 368 B1
IOPIN 576 368 Out
FLAG 656 368 B0
IOPIN 656 368 Out
FLAG 128 480 0
FLAG 48 480 0
FLAG -32 480 0
FLAG -112 480 0
FLAG -112 368 A3
IOPIN -112 368 Out
FLAG -32 368 A2
IOPIN -32 368 Out
FLAG 48 368 A1
IOPIN 48 368 Out
FLAG 128 368 A0
IOPIN 128 368 Out
SYMBOL part1_circuit 432 176 R0
SYMATTR InstName full_adder1
SYMBOL part1_circuit 288 176 R0
SYMATTR InstName full_adder2
SYMBOL part1_circuit 144 176 R0
SYMATTR InstName full_adder3
SYMBOL part1_circuit 0 176 R0
SYMATTR InstName full_adder4
SYMBOL Digital\\and 400 -80 R0
SYMATTR InstName A1
SYMBOL Digital\\and 256 -80 R0
SYMATTR InstName A2
SYMBOL Digital\\and 112 -80 R0
SYMATTR InstName A3
SYMBOL Digital\\and -32 -80 R0
SYMATTR InstName A4
SYMBOL voltage 640 80 R0
WINDOW 123 0 0 Left 0
WINDOW 39 0 0 Left 0
WINDOW 3 -4 59 Left 2
SYMATTR InstName V1
SYMATTR Value 5
SYMBOL voltage 416 352 R0
WINDOW 123 0 0 Left 0
WINDOW 39 0 0 Left 0
WINDOW 3 -5 59 Left 2
SYMATTR InstName V6
SYMATTR Value 5
SYMBOL voltage 496 352 R0
WINDOW 123 0 0 Left 0
WINDOW 39 0 0 Left 0
WINDOW 3 -3 59 Left 2
SYMATTR InstName V7
SYMATTR Value 0
SYMBOL voltage 576 352 R0
WINDOW 123 0 0 Left 0
WINDOW 39 0 0 Left 0
WINDOW 3 -4 60 Left 2
SYMATTR InstName V8
SYMATTR Value 5
SYMBOL voltage 656 352 R0
WINDOW 123 0 0 Left 0
WINDOW 39 0 0 Left 0
WINDOW 3 -3 59 Left 2
SYMATTR InstName V9
SYMATTR Value 5
SYMBOL voltage -112 352 R0
WINDOW 3 -5 61 Left 2
WINDOW 123 0 0 Left 0
WINDOW 39 0 0 Left 0
SYMATTR InstName V2
SYMATTR Value 5
SYMBOL voltage -32 352 R0
WINDOW 3 -5 60 Left 2
WINDOW 123 0 0 Left 0
WINDOW 39 0 0 Left 0
SYMATTR InstName V3
SYMATTR Value 5
SYMBOL voltage 48 352 R0
WINDOW 3 -6 61 Left 2
WINDOW 123 0 0 Left 0
WINDOW 39 0 0 Left 0
SYMATTR InstName V4
SYMATTR Value 0
SYMBOL voltage 128 352 R0
WINDOW 3 -5 60 Left 2
WINDOW 123 0 0 Left 0
WINDOW 39 0 0 Left 0
SYMATTR InstName V5
SYMATTR Value 0
TEXT -78 584 Left 2 !.tran 20ms
